! OPT PBE0 D3BJ def2-TZVP TightSCF VeryTightSCF SlowConv SOSCF 

* xyz 0 1 
O 0.8379996657 0.2469361723 -0.0023578419
C 2.0551591251 0.1377930499 -0.0074119275
C 2.9310287791 1.3174727301 -0.0078329201
C 4.2644741146 1.2010123153 -0.0115477899
C 4.9251231186 -0.0878805524 -0.0147950881
N 6.2172394849 -0.0764541339 -0.0184496264
C 6.9828917708 -1.2132039303 -0.0215265734
C 8.3738598371 -1.0354639890 -0.0255393568
C 9.2306728421 -2.1123076776 -0.0288769950
C 8.7116708698 -3.4063389769 -0.0282552453
C 7.3468981018 -3.6126328894 -0.0243423370
C 6.4763289466 -2.5244735592 -0.0209586691
S 4.7784409695 -2.8515336863 -0.0160353041
C 4.0640783198 -1.2734096718 -0.0131392507
C 2.7171195951 -1.1569367136 -0.0094880294
H 8.7383181763 -0.0154547440 -0.0258926323
H 10.3022086769 -1.9559773406 -0.0319553205
H 2.0713750915 -2.0280771505 -0.0081584496
C 2.3391734704 2.5862151364 -0.0078329201
C 3.1420089708 3.7331480723 -0.0078329201
C 4.5366997799 3.6113386018 -0.0078329201
C 5.1285550886 2.3425961955 -0.0078329201
H 1.2632691320 2.6801824422 -0.0078329201
H 2.6854348755 4.7118922143 -0.0078329201
H 5.1560300230 4.4961154380 -0.0078329201
H 6.2044594270 2.2486288897 -0.0078329201
C 9.5850172136 -4.5005355606 -0.0282552453
C 9.0740883473 -5.8039739725 -0.0282552453
C 7.6898131372 -6.0132158007 -0.0282552453
C 6.8164667934 -4.9190192170 -0.0282552453
H 10.6528866614 -4.3391204359 -0.0282552453
H 9.7478126697 -6.6480684799 -0.0282552453
H 7.2956680118 -7.0187254327 -0.0282552453
H 5.7485973456 -5.0804343416 -0.0282552453
*