! OPT PBE0 D3BJ def2-TZVP TightSCF 

* xyz 0 1 
N -0.0044384516 1.2381688167 -0.6577412120
C 1.2120478551 0.6478792528 -0.3273497489
C 2.3166972620 1.4297027641 -0.0077599010
C 3.5360053719 0.8418927822 0.2887947563
C 3.6589747779 -0.5381971645 0.3043039648
C 2.5549277273 -1.3252875145 0.0112216681
C 1.3427231430 -0.7430424283 -0.3271129291
S -0.0000190014 -1.7488157392 -0.8531166077
C -1.3461520497 -0.7469480317 -0.3283377750
C -1.2194945332 0.6443434985 -0.3284209695
C -2.3266836679 1.4229536236 -0.0097706625
C -3.5445529985 0.8316076669 0.2856666860
C -3.6635534994 -0.5488325768 0.3009973574
C -2.5569707546 -1.3327147535 0.0088821887
H -0.0059372331 2.2426677286 -0.5832656027
H 4.6058588103 -1.0039904938 0.5472017525
H 2.6324586614 -2.4064693094 0.0256570950
H -2.2295718626 2.5041231410 -0.0024479231
H -4.3986997075 1.4566687576 0.5169690193
C 4.6930661395 1.6300617869 0.2887947563
C 4.5890221429 3.0261903077 0.2887947563
C 3.3279173786 3.6341498240 0.2887947563
C 2.1708566109 2.8459808193 0.2887947563
H 5.6659183863 1.1610644458 0.2887947563
H 5.4816118780 3.6342063970 0.2887947563
H 3.2476548669 4.7111632543 0.2887947563
H 1.1980043641 3.3149781604 0.2887947563
C -2.6866066324 -2.7266998822 0.0088821887
C -3.9586511053 -3.3114244831 0.0088821887
C -5.1010597004 -2.5021639553 0.0088821887
C -4.9714238226 -1.1081788266 0.0088821887
H -1.8053200019 -3.3509865751 0.0088821887
H -4.0586559254 -4.3867844396 0.0088821887
H -6.0823511510 -2.9532372189 0.0088821887
H -5.8527104531 -0.4838921337 0.0088821887
*