! OPT PBE0 D3BJ def2-TZVP TightSCF 

* xyz 0 1 
N -0.0044384516 1.2381688167 -0.6577412120
C 1.2120478551 0.6478792528 -0.3273497489
C 2.3166972620 1.4297027641 -0.0077599010
C 3.5360053719 0.8418927822 0.2887947563
C 3.6589747779 -0.5381971645 0.3043039648
C 2.5549277273 -1.3252875145 0.0112216681
C 1.3427231430 -0.7430424283 -0.3271129291
S -0.0000190014 -1.7488157392 -0.8531166077
C -1.3461520497 -0.7469480317 -0.3283377750
C -1.2194945332 0.6443434985 -0.3284209695
C -2.3266836679 1.4229536236 -0.0097706625
C -3.5445529985 0.8316076669 0.2856666860
C -3.6635534994 -0.5488325768 0.3009973574
C -2.5569707546 -1.3327147535 0.0088821887
H -0.0059372331 2.2426677286 -0.5832656027
H 2.2164561279 2.5105890877 -0.0005715038
H 2.6324586614 -2.4064693094 0.0256570950
H -2.2295718626 2.5041231410 -0.0024479231
H -2.6313729883 -2.4141184101 0.0232216052
C 4.9287514924 -1.1278301819 0.3043039648
C 6.0742770217 -0.3229877986 0.3043039648
C 5.9500258363 1.0714876020 0.3043039648
C 4.6802491218 1.6611206194 0.3043039648
H 5.0246024068 -2.2035683480 0.3043039648
H 7.0538190586 -0.7778475549 0.3043039648
H 6.8337169589 1.6923660119 0.3043039648
H 4.5843982074 2.7368587856 0.3043039648
C -4.9316294084 -1.1421145411 0.3009973574
C -6.0794646155 -0.3405695721 0.3009973574
C -5.9592239136 1.0542573611 0.3009973574
C -4.6911480047 1.6475393254 0.3009973574
H -5.0243865212 -2.2181238895 0.3009973574
H -7.0576946024 -0.7982442302 0.3009973574
H -6.8446967877 1.6725920515 0.3009973574
H -4.5983908918 2.7235486738 0.3009973574
*