! OPT PBE0 D3BJ def2-TZVP TightSCF 

* xyz 0 1 
O 0.0069143932 1.2559673876 0.0030329431
C -1.1931278586 0.6081513681 0.0030425253
C -1.3497317745 -0.7739984071 0.0021481131
S -0.0020934110 -1.8934428745 0.0008960645
C 1.3519267593 -0.7817288023 0.0009046621
C 1.2032312221 0.6012963186 0.0019540527
C 2.3223737368 1.4192038102 0.0019335216
C 3.5944077847 0.8727338257 0.0008614567
C 3.7522991922 -0.5043351312 -0.0002069559
C 2.6342921347 -1.3204373302 -0.0001786844
C -2.6351540071 -1.3053774676 0.0022621454
C -3.7484773287 -0.4829000594 0.0032492959
C -3.5827020068 0.8932452273 0.0041388912
C -2.3075720234 1.4324449090 0.0040284394
H 2.1682536203 2.4914255806 0.0027670352
H 2.7474377761 -2.3990846776 -0.0010059488
H -4.4429457876 1.5511835090 0.0049138346
H -2.1473378067 2.5037690190 0.0047028076
C 5.0365808181 -1.0616686986 -0.0002069559
C 6.1613866589 -0.2281149687 -0.0002069559
C 6.0019108737 1.1627723286 -0.0002069559
C 4.7176292478 1.7201058961 -0.0002069559
H 5.1596049952 -2.1346388994 -0.0002069559
H 7.1521181988 -0.6580580065 -0.0002069559
H 6.8696182366 1.8057994917 -0.0002069559
H 4.5946050707 2.7930760969 -0.0002069559
C -5.0319270984 -1.0421465962 0.0032492959
C -5.1893302753 -2.4332699695 0.0032492959
C -4.0632836827 -3.2651468061 0.0032492959
C -2.7798339131 -2.7059002693 0.0032492959
H -5.9005916127 -0.4004130365 0.0032492959
H -6.1794200976 -2.8646887265 0.0032492959
H -4.1847089907 -4.3382991227 0.0032492959
H -1.9111693988 -3.3476338290 0.0032492959
*