! OPT PBE0 D3BJ def2-TZVP TightSCF VeryTightSCF SlowConv SOSCF 

* xyz 0 1 
N 0.0238372151 1.4073080997 0.0006022994
C -1.1790470205 0.7290125737 0.0000964284
C -1.1582641273 -0.6688198452 -0.0002534238
O 0.0196806069 -1.3704865226 -0.0001013515
C 1.1997230096 -0.6723508651 0.0004217831
C 1.2246819261 0.7254100499 0.0007793378
C 2.4527735942 1.3705700515 0.0012988161
C 3.6356756510 0.6423836479 0.0014613731
C 3.5995388195 -0.7399348690 0.0011054218
C 2.3726225077 -1.3953372158 0.0005864626
C -2.3333233939 -1.3882879829 -0.0007671095
C -3.5582665477 -0.7292082098 -0.0009399376
C -3.5902710932 0.6532145970 -0.0005947222
C -2.4051962325 1.3778544987 -0.0000810202
H 0.0253416784 2.4105024397 0.0008522105
H 4.5166184518 -1.3152336662 0.0012302936
H 2.3093461857 -2.4767532091 0.0002978089
H -4.5368096075 1.1796117938 -0.0007216765
H -2.4267709612 2.4627322275 0.0001894418
C 2.4922587844 2.7700131263 0.0012988161
C 3.7239546335 3.4355394860 0.0012988161
C 4.9161652923 2.7016227708 0.0012988161
C 4.8766801021 1.3021796959 0.0012988161
H 1.5725534190 3.3361774495 0.0012988161
H 3.7544146373 4.5151098580 0.0012988161
H 5.8663306616 3.2150288196 0.0012988161
H 5.7963854676 0.7360153728 0.0012988161
C -2.2913617921 -2.7876589931 -0.0007671095
C -3.4822718354 -3.5236843112 -0.0007671095
C -4.7151434803 -2.8603386192 -0.0007671095
C -4.7571050820 -1.4609676091 -0.0007671095
H -1.3402893803 -3.2993828126 -0.0007671095
H -3.4499014569 -4.6031990904 -0.0007671095
H -5.6338455137 -3.4281295789 -0.0007671095
H -5.7081774939 -0.9492437896 -0.0007671095
*