! OPT PBE0 D3BJ def2-TZVP TightSCF VeryTightSCF SlowConv SOSCF 

* xyz 0 1 
O 0.0069143932 1.2559673876 0.0030329431
C -1.1931278586 0.6081513681 0.0030425253
C -1.3497317745 -0.7739984071 0.0021481131
S -0.0020934110 -1.8934428745 0.0008960645
C 1.3519267593 -0.7817288023 0.0009046621
C 1.2032312221 0.6012963186 0.0019540527
C 2.3223737368 1.4192038102 0.0019335216
C 3.5944077847 0.8727338257 0.0008614567
C 3.7522991922 -0.5043351312 -0.0002069559
C 2.6342921347 -1.3204373302 -0.0001786844
C -2.6351540071 -1.3053774676 0.0022621454
C -3.7484773287 -0.4829000594 0.0032492959
C -3.5827020068 0.8932452273 0.0041388912
C -2.3075720234 1.4324449090 0.0040284394
H 4.7408590130 -0.9462971563 -0.0010593464
H 2.7474377761 -2.3990846776 -0.0010059488
H -2.7544525876 -2.3833601906 0.0015584249
H -4.7395552893 -0.9191851621 0.0033198244
C 2.1577854221 2.8094953936 0.0019335216
C 3.2795190946 3.6471788469 0.0019335216
C 4.5658410818 3.0945707169 0.0019335216
C 4.7304293965 1.7042791336 0.0019335216
H 1.1654798892 3.2357930938 0.0019335216
H 3.1525509661 4.7196894969 0.0019335216
H 5.4311784863 3.7407836667 0.0019335216
H 5.7227349294 1.2779814333 0.0019335216
C -4.6996361700 1.7373175434 0.0041388912
C -4.5271151832 3.1266470613 0.0041388912
C -3.2376600332 3.6719042629 0.0041388912
C -2.1207258699 2.8278319468 0.0041388912
H -5.6943587144 1.3166905593 0.0041388912
H -5.3887501092 3.7777885623 0.0041388912
H -3.1045724148 4.7436727481 0.0041388912
H -1.1260033256 3.2484589309 0.0041388912
*