! OPT PBE0 D3BJ def2-TZVP TightSCF 

* xyz 0 1 
C 3.6559681037 -0.8362652507 0.0005188535
C 2.4325585476 -1.4389362883 0.0016360718
C 1.2429972704 -0.6662443865 -0.0000631058
C 0.0008721914 -1.2976397148 0.0011157948
C -1.2396866848 -0.6631714606 -0.0003133734
C -2.4311508141 -1.4329265754 0.0011536782
C -3.6530692728 -0.8272420762 -0.0002226417
C -3.7396835310 0.5772739887 -0.0031332978
C -2.6127472781 1.3617935753 -0.0046370015
C -1.3513595619 0.7555736054 -0.0032491209
S 0.0046904748 1.7885691492 -0.0052312161
C 1.3581724269 0.7522171633 -0.0029634830
C 2.6210564657 1.3553244325 -0.0040730708
C 3.7460558964 0.5680297460 -0.0023478853
H 2.3450459516 -2.5191811475 0.0038416511
H -0.0004944857 -2.3838468100 0.0033421080
H -2.3462916586 -2.5133820532 0.0033950703
H -2.6942809750 2.4423827944 -0.0068759505
H 2.7052462354 2.4357087810 -0.0062775479
C 5.0008183002 1.1889736322 -0.0023478853
C 6.1659526819 0.4127894578 -0.0023478853
C 6.0763246598 -0.9843386028 -0.0023478853
C 4.8215622559 -1.6052824890 -0.0023478853
H 5.0699599173 2.2667581360 -0.0023478853
H 7.1339122506 0.8918033129 -0.0023478853
H 6.9751426114 -1.5831092515 -0.0023478853
H 4.7524206389 -2.6830669928 -0.0023478853
C -4.9929062398 1.2013195336 -0.0031332978
C -6.1599568892 0.4280196036 -0.0031332978
C -6.0737848298 -0.9693258713 -0.0031332978
C -4.8205621210 -1.5933714162 -0.0031332978
H -5.0593818285 2.2792717571 -0.0031332978
H -7.1267286932 0.9094261668 -0.0031332978
H -6.9740810451 -1.5658715315 -0.0031332978
H -4.7540865323 -2.6713236396 -0.0031332978
*