! OPT PBE0 D3BJ def2-TZVP TightSCF 

* xyz 0 1 
C 3.6559681037 -0.8362652507 0.0005188535
C 2.4325585476 -1.4389362883 0.0016360718
C 1.2429972704 -0.6662443865 -0.0000631058
C 0.0008721914 -1.2976397148 0.0011157948
C -1.2396866848 -0.6631714606 -0.0003133734
C -2.4311508141 -1.4329265754 0.0011536782
C -3.6530692728 -0.8272420762 -0.0002226417
C -3.7396835310 0.5772739887 -0.0031332978
C -2.6127472781 1.3617935753 -0.0046370015
C -1.3513595619 0.7555736054 -0.0032491209
S 0.0046904748 1.7885691492 -0.0052312161
C 1.3581724269 0.7522171633 -0.0029634830
C 2.6210564657 1.3553244325 -0.0040730708
C 3.7460558964 0.5680297460 -0.0023478853
H 4.5597366372 -1.4320152157 0.0018252041
H 2.3450459516 -2.5191811475 0.0038416511
H -0.0004944857 -2.3838468100 0.0033421080
H -2.3462916586 -2.5133820532 0.0033950703
H -4.5583109276 -1.4207502306 0.0009114227
H -4.7138233593 1.0516541001 -0.0042135169
H -2.6942809750 2.4423827944 -0.0068759505
C 5.0147320163 1.1600271299 -0.0023478853
C 5.1363853028 2.5547315710 -0.0023478853
C 3.9893624693 3.3574386281 -0.0023478853
C 2.7206863493 2.7654412441 -0.0023478853
H 5.8995782021 0.5407959716 -0.0023478853
H 6.1150783096 3.0114152672 -0.0023478853
H 4.0832092903 4.4333534826 -0.0023478853
H 1.8358401635 3.3846724024 -0.0023478853
*