! OPT PBE0 D3BJ def2-TZVP TightSCF VeryTightSCF SlowConv SOSCF 

* xyz 0 1 
C -3.5414818724 -0.7154855514 -0.0003781936
C -2.3718154951 -1.4093784654 -0.0000537525
C -1.1313774474 -0.7173626685 -0.0005571497
N 0.0058888153 -1.4087505879 -0.0002368803
C 1.1397370562 -0.7117737632 -0.0007261093
C 2.3835863616 -1.3976408146 -0.0004155364
C 3.5498094991 -0.6979716267 -0.0008981626
C 3.5463130714 0.7224152968 -0.0017211593
C 2.3766439275 1.4163020915 -0.0020463645
C 1.1362097034 0.7242838467 -0.0015572864
N -0.0010551940 1.4156680635 -0.0018826166
C -1.1349010240 0.7186948458 -0.0013984149
C -2.3787460291 1.4045669692 -0.0017176898
C -3.5449700588 0.7049017152 -0.0012228973
H 2.3598153836 -2.4806501043 0.0002200057
H 2.3474872238 2.4991756337 -0.0026752953
H -2.3549720039 2.4875716165 -0.0023630318
H -4.4925843421 1.2308615115 -0.0014680990
C -4.7621170602 -1.4010872859 -0.0003781936
C -4.7786861351 -2.8009892345 -0.0003781936
C -3.5746200223 -3.5152894486 -0.0003781936
C -2.3539848345 -2.8296877141 -0.0003781936
H -5.6909680615 -0.8500556921 -0.0003781936
H -5.7203189943 -3.3298820011 -0.0003781936
H -3.5874018800 -4.5952138090 -0.0003781936
H -1.4251338331 -3.3807193078 -0.0003781936
C 4.7639645074 -1.3949849808 -0.0008981626
C 5.9746732830 -0.6920025764 -0.0008981626
C 5.9712270502 0.7079931819 -0.0008981626
C 4.7570720419 1.4050065360 -0.0008981626
H 4.7666230299 -2.4749817087 -0.0008981626
H 6.9113071466 -1.2296985924 -0.0008981626
H 6.9052023913 1.2502938938 -0.0008981626
H 4.7544135194 2.4850032639 -0.0008981626
*