! OPT PBE0 D3BJ def2-TZVP TightSCF 

* xyz 0 1 
O 0.8379996657 0.2469361723 -0.0023578419
C 2.0551591251 0.1377930499 -0.0074119275
C 2.9310287791 1.3174727301 -0.0078329201
C 4.2644741146 1.2010123153 -0.0115477899
C 4.9251231186 -0.0878805524 -0.0147950881
N 6.2172394849 -0.0764541339 -0.0184496264
C 6.9828917708 -1.2132039303 -0.0215265734
C 8.3738598371 -1.0354639890 -0.0255393568
C 9.2306728421 -2.1123076776 -0.0288769950
C 8.7116708698 -3.4063389769 -0.0282552453
C 7.3468981018 -3.6126328894 -0.0243423370
C 6.4763289466 -2.5244735592 -0.0209586691
S 4.7784409695 -2.8515336863 -0.0160353041
C 4.0640783198 -1.2734096718 -0.0131392507
C 2.7171195951 -1.1569367136 -0.0094880294
H 2.4382856189 2.2827375392 -0.0052623704
H 4.9246362006 2.0604919069 -0.0122735621
H 8.7383181763 -0.0154547440 -0.0258926323
H 6.9447393293 -4.6196786805 -0.0238480311
H 2.0713750915 -2.0280771505 -0.0081584496
C 9.5763971588 -4.5073605230 -0.0282552453
C 10.9622729324 -4.3089963624 -0.0282552453
C 11.4834224169 -3.0096106557 -0.0282552453
C 10.6186961279 -1.9085891096 -0.0282552453
H 9.1743675565 -5.5097437825 -0.0282552453
H 11.6293474983 -5.1583558408 -0.0282552453
H 12.5525265851 -2.8565868747 -0.0282552453
H 11.0207257302 -0.9062058501 -0.0282552453
*