! OPT PBE0 D3BJ def2-TZVP TightSCF 

* xyz 0 1 
C 3.5795585174 -0.8691028994 0.0027880773
C 2.3421719542 -1.4375305507 0.0044570774
C 1.1746262181 -0.6270795695 0.0021714694
N 0.0036513197 -1.2514499164 0.0039871503
C -1.1670897435 -0.6266403371 0.0022208961
C -2.3349397303 -1.4366529569 0.0045561566
C -3.5721130305 -0.8677599565 0.0029396552
C -3.7077818036 0.5369927818 -0.0010774197
C -2.6118499854 1.3631551889 -0.0034581027
C -1.3320558870 0.7984383377 -0.0018616111
S 0.0042337548 1.8389035833 -0.0048688569
C 1.3401309209 0.7979363621 -0.0019165663
C 2.6201375436 1.3621727382 -0.0035714381
C 3.7157583318 0.5355980441 -0.0012385792
H 2.1953879403 -2.5101503211 0.0075309418
H -4.6988066011 0.9752085519 -0.0023153394
H -2.7310037537 2.4403281782 -0.0065406622
H 2.7396940841 2.4393018642 -0.0066589608
C 4.9900897657 1.1153215961 -0.0012385792
C 6.1293108058 0.3015799774 -0.0012385792
C 5.9942004120 -1.0918851931 -0.0012385792
C 4.7198689781 -1.6716087450 -0.0012385792
H 5.0943177838 2.1902804419 -0.0012385792
H 7.1123664833 0.7487952889 -0.0012385792
H 6.8730280714 -1.7196287274 -0.0012385792
H 4.6156409600 -2.7465675909 -0.0012385792
C -4.7146283912 -1.6768697453 0.0029396552
C -4.5851764400 -3.0708719664 0.0029396552
C -3.3132091280 -3.6557643986 0.0029396552
C -2.1706937672 -2.8466546097 0.0029396552
H -5.6958603176 -1.2256670119 0.0029396552
H -5.4665454326 -3.6950423749 0.0029396552
H -3.2133461942 -4.7311375405 0.0029396552
H -1.1894618408 -3.2978573431 0.0029396552
*