! OPT PBE0 D3BJ def2-TZVP TightSCF 

* xyz 0 1 
N -0.0044384516 1.2381688167 -0.6577412120
C 1.2120478551 0.6478792528 -0.3273497489
C 2.3166972620 1.4297027641 -0.0077599010
C 3.5360053719 0.8418927822 0.2887947563
C 3.6589747779 -0.5381971645 0.3043039648
C 2.5549277273 -1.3252875145 0.0112216681
C 1.3427231430 -0.7430424283 -0.3271129291
S -0.0000190014 -1.7488157392 -0.8531166077
C -1.3461520497 -0.7469480317 -0.3283377750
C -1.2194945332 0.6443434985 -0.3284209695
C -2.3266836679 1.4229536236 -0.0097706625
C -3.5445529985 0.8316076669 0.2856666860
C -3.6635534994 -0.5488325768 0.3009973574
C -2.5569707546 -1.3327147535 0.0088821887
H -0.0059372331 2.2426677286 -0.5832656027
H 2.2164561279 2.5105890877 -0.0005715038
H 4.3881290870 1.4694368999 0.5208347688
H -4.6093020758 -1.0173775978 0.5430239732
H -2.6313729883 -2.4141184101 0.0232216052
C 2.6887613885 -2.7188758867 0.0112216681
C 3.9625611519 -3.2997667222 0.0112216681
C 5.1025272540 -2.4870691856 0.0112216681
C 4.9686935928 -1.0934808134 0.0112216681
H 1.8093589669 -3.3458139863 0.0112216681
H 4.0658042620 -4.3748206094 0.0112216681
H 6.0851727857 -2.9351849731 0.0112216681
H 5.8480960144 -0.4665427138 0.0112216681
C -4.7038272365 1.6165173694 0.2856666860
C -4.6037126133 3.0129331607 0.2856666860
C -3.3443237523 3.6244392495 0.2856666860
C -2.1850495143 2.8395295469 0.2856666860
H -5.6753557864 1.1447841009 0.2856666860
H -5.4980098826 3.6184349313 0.2856666860
H -3.2670924716 4.7016742885 0.2856666860
H -1.2135209643 3.3112628154 0.2856666860
*