! OPT PBE0 D3BJ def2-TZVP TightSCF 

* xyz 0 1 
N 0.0238372151 1.4073080997 0.0006022994
C -1.1790470205 0.7290125737 0.0000964284
C -1.1582641273 -0.6688198452 -0.0002534238
O 0.0196806069 -1.3704865226 -0.0001013515
C 1.1997230096 -0.6723508651 0.0004217831
C 1.2246819261 0.7254100499 0.0007793378
C 2.4527735942 1.3705700515 0.0012988161
C 3.6356756510 0.6423836479 0.0014613731
C 3.5995388195 -0.7399348690 0.0011054218
C 2.3726225077 -1.3953372158 0.0005864626
C -2.3333233939 -1.3882879829 -0.0007671095
C -3.5582665477 -0.7292082098 -0.0009399376
C -3.5902710932 0.6532145970 -0.0005947222
C -2.4051962325 1.3778544987 -0.0000810202
H 0.0253416784 2.4105024397 0.0008522105
H 4.5166184518 -1.3152336662 0.0012302936
H 2.3093461857 -2.4767532091 0.0002978089
H -2.2732959160 -2.4698889904 -0.0010292389
H -4.4770622373 -1.3017621023 -0.0013425910
H -4.5368096075 1.1796117938 -0.0007216765
H -2.4267709612 2.4627322275 0.0001894418
C 4.8673715001 1.3079100076 0.0014613731
C 4.9068566903 2.7073530824 0.0014613731
C 3.7146460314 3.4412697977 0.0014613731
C 2.4829501823 2.7757434380 0.0014613731
H 5.7870768655 0.7417456844 0.0014613731
H 5.8570220596 3.2207591313 0.0014613731
H 3.7451060353 4.5208401697 0.0014613731
H 1.5632448169 3.3419077612 0.0014613731
*