! OPT PBE0 D3BJ def2-TZVP TightSCF 

* xyz 0 1 
C 3.5795585174 -0.8691028994 0.0027880773
C 2.3421719542 -1.4375305507 0.0044570774
C 1.1746262181 -0.6270795695 0.0021714694
N 0.0036513197 -1.2514499164 0.0039871503
C -1.1670897435 -0.6266403371 0.0022208961
C -2.3349397303 -1.4366529569 0.0045561566
C -3.5721130305 -0.8677599565 0.0029396552
C -3.7077818036 0.5369927818 -0.0010774197
C -2.6118499854 1.3631551889 -0.0034581027
C -1.3320558870 0.7984383377 -0.0018616111
S 0.0042337548 1.8389035833 -0.0048688569
C 1.3401309209 0.7979363621 -0.0019165663
C 2.6201375436 1.3621727382 -0.0035714381
C 3.7157583318 0.5355980441 -0.0012385792
H 4.4664543921 -1.4900089312 0.0045319622
H 2.1953879403 -2.5101503211 0.0075309418
H -2.1885580314 -2.5093286522 0.0076174589
H -4.4592442385 -1.4883304560 0.0047225205
H -4.6988066011 0.9752085519 -0.0023153394
H -2.7310037537 2.4403281782 -0.0065406622
C 5.0047721662 1.0818977191 -0.0012385792
C 5.1761696867 2.4713662830 -0.0012385792
C 4.0585533729 3.3145351718 -0.0012385792
C 2.7695395386 2.7682354969 -0.0012385792
H 5.8669333225 0.4314531477 -0.0012385792
H 6.1705517875 2.8927974608 -0.0012385792
H 4.1907743173 4.3864109211 -0.0012385792
H 1.9073783822 3.4186800683 -0.0012385792
*