! OPT PBE0 D3BJ def2-TZVP TightSCF VeryTightSCF SlowConv SOSCF 

* xyz 0 1 
O 0.9692011692 0.0599959863 0.0394801588
C 2.1879180596 0.0591337571 0.0411522250
C 2.9347908982 -1.2152738896 0.0415964949
C 4.3298195400 -1.3071906519 0.0426266851
S 5.3993525478 0.0568635432 0.0434419646
C 4.3317534565 1.4224317735 0.0421128131
C 2.9365951513 1.3324841929 0.0411237755
C 2.1897597875 2.5161090568 0.0400799120
C 2.8000141505 3.7488499216 0.0400231680
C 4.1926732815 3.8252665071 0.0410232522
C 4.9520046204 2.6767074766 0.0420558759
C 4.9482978236 -2.5623445967 0.0430470914
C 4.1873445402 -3.7098318115 0.0424262944
C 2.7947966231 -3.6314451072 0.0413792551
C 2.1862841573 -2.3978420569 0.0409690630
H 1.1114220176 2.4157545190 0.0393370079
H 6.0347862565 2.7355943355 0.0428308900
H 2.1976487943 -4.5350504976 0.0408980634
H 1.1080890799 -2.2959687333 0.0401792780
C 2.0346379516 4.9211123812 0.0400231680
C 2.6671589221 6.1700788427 0.0400231680
C 4.0650560915 6.2467828446 0.0400231680
C 4.8304322903 5.0745203850 0.0400231680
H 0.9562601352 4.8619407227 0.0400231680
H 2.0767258544 7.0743955973 0.0400231680
H 4.5530008401 7.2102712577 0.0400231680
H 5.9088101067 5.1336920435 0.0400231680
C 6.3456110484 -2.6490380326 0.0430470914
C 6.9691889430 -3.9024935002 0.0430470914
C 6.1954536128 -5.0692555320 0.0430470914
C 4.7981403880 -4.9825620961 0.0430470914
H 6.9424925888 -1.7489644652 0.0430470914
H 8.0471162878 -3.9693712936 0.0430470914
H 6.6764994172 -6.0362068927 0.0430470914
H 4.2012588476 -5.8826356635 0.0430470914
*