! OPT PBE0 D3BJ def2-TZVP TightSCF VeryTightSCF SlowConv SOSCF 

* xyz 0 1 
O 0.9692011692 0.0599959863 0.0394801588
C 2.1879180596 0.0591337571 0.0411522250
C 2.9347908982 -1.2152738896 0.0415964949
C 4.3298195400 -1.3071906519 0.0426266851
S 5.3993525478 0.0568635432 0.0434419646
C 4.3317534565 1.4224317735 0.0421128131
C 2.9365951513 1.3324841929 0.0411237755
C 2.1897597875 2.5161090568 0.0400799120
C 2.8000141505 3.7488499216 0.0400231680
C 4.1926732815 3.8252665071 0.0410232522
C 4.9520046204 2.6767074766 0.0420558759
C 4.9482978236 -2.5623445967 0.0430470914
C 4.1873445402 -3.7098318115 0.0424262944
C 2.7947966231 -3.6314451072 0.0413792551
C 2.1862841573 -2.3978420569 0.0409690630
H 1.1114220176 2.4157545190 0.0393370079
H 6.0347862565 2.7355943355 0.0428308900
H 6.0309943395 -2.6227588260 0.0438566667
H 1.1080890799 -2.2959687333 0.0401792780
C 2.0346379516 4.9211123812 0.0400231680
C 2.6671589221 6.1700788427 0.0400231680
C 4.0650560915 6.2467828446 0.0400231680
C 4.8304322903 5.0745203850 0.0400231680
H 0.9562601352 4.8619407227 0.0400231680
H 2.0767258544 7.0743955973 0.0400231680
H 4.5530008401 7.2102712577 0.0400231680
H 5.9088101067 5.1336920435 0.0400231680
C 4.8180978783 -4.9596918943 0.0424262944
C 4.0510639644 -6.1308703499 0.0424262944
C 2.6532767125 -6.0521887228 0.0424262944
C 2.0225233745 -4.8023286400 0.0424262944
H 5.8963909012 -5.0203891495 0.0424262944
H 4.5376451109 -7.0950481281 0.0424262944
H 2.0615648361 -6.9556692457 0.0424262944
H 0.9442303516 -4.7416313848 0.0424262944
*