! OPT PBE0 D3BJ def2-TZVP TightSCF VeryTightSCF SlowConv SOSCF 

* xyz 0 1 
C -3.2799885436 -0.1976299439 -0.6197779043
C -2.1390748314 -0.9384065599 -0.6197655864
C -0.8677529380 -0.3058945492 -0.6198056556
C 0.3294467335 -1.0088986399 -0.6198002604
C 1.5382493683 -0.3260666780 -0.6198517562
C 2.7987876002 -0.9797681480 -0.6198631171
C 3.9519099738 -0.2581705801 -0.6199221422
C 3.9102880090 1.1598897340 -0.6199665959
C 2.7221888231 1.8229577325 -0.6199558139
C 1.4933175258 1.1079545027 -0.6199023140
N 0.3528814541 1.7974291980 -0.6199012512
C -0.7989298422 1.1271040315 -0.6198584161
C -2.0156699044 1.8625876521 -0.6198670989
C -3.2147143727 1.2195109477 -0.6198286108
H 0.3202434563 -2.0951277920 -0.6197647987
H 2.8220489509 -2.0644642279 -0.6198300936
H 4.9106984434 -0.7631074350 -0.6199338822
H 4.8405052721 1.7164194367 -0.6200111852
H 2.6685357683 2.9047633106 -0.6199912841
H -1.9438771200 2.9433433725 -0.6199128040
H -4.1354999415 1.7915047802 -0.6198391577
C -4.5273422593 -0.8333253961 -0.6197779043
C -4.6004907065 -2.2314131275 -0.6197779043
C -3.4262854380 -2.9938054067 -0.6197779043
C -2.1789317223 -2.3581099545 -0.6197779043
H -5.4331577522 -0.2451942093 -0.6197779043
H -5.5627350014 -2.7218067620 -0.6197779043
H -3.4827142401 -4.0723302280 -0.6197779043
H -1.2731162294 -2.9462411413 -0.6197779043
*