! OPT PBE0 D3BJ def2-TZVP TightSCF VeryTightSCF SlowConv SOSCF 

* xyz 1 1 
C 3.6559681037 -0.8362652507 0.0005188535
C 2.4325585476 -1.4389362883 0.0016360718
C 1.2429972704 -0.6662443865 -0.0000631058
C 0.0008721914 -1.2976397148 0.0011157948
C -1.2396866848 -0.6631714606 -0.0003133734
C -2.4311508141 -1.4329265754 0.0011536782
C -3.6530692728 -0.8272420762 -0.0002226417
C -3.7396835310 0.5772739887 -0.0031332978
C -2.6127472781 1.3617935753 -0.0046370015
C -1.3513595619 0.7555736054 -0.0032491209
S 0.0046904748 1.7885691492 -0.0052312161
C 1.3581724269 0.7522171633 -0.0029634830
C 2.6210564657 1.3553244325 -0.0040730708
C 3.7460558964 0.5680297460 -0.0023478853
H 4.5597366372 -1.4320152157 0.0018252041
H 2.3450459516 -2.5191811475 0.0038416511
H -0.0004944857 -2.3838468100 0.0033421080
H -4.7138233593 1.0516541001 -0.0042135169
H -2.6942809750 2.4423827944 -0.0068759505
C 2.7427097522 2.7500288736 -0.0040730708
C 4.0113858722 3.3420262576 -0.0040730708
C 5.1584087056 2.5393192005 -0.0040730708
C 5.0367554192 1.1446147594 -0.0040730708
H 1.8578635664 3.3692600319 -0.0040730708
H 4.1052326931 4.4179411121 -0.0040730708
H 6.1371017125 2.9960028967 -0.0040730708
H 5.9216016050 0.5253836011 -0.0040730708
C -2.3424355454 -2.8301128912 0.0011536782
C -3.5080767544 -3.6055357255 0.0011536782
C -4.7624332321 -2.9837722440 0.0011536782
C -4.8511485007 -1.5865859281 0.0011536782
H -1.3747891198 -3.3097590056 0.0011536782
H -3.4396392615 -4.6833651691 0.0011536782
H -5.6616421647 -3.5819555733 0.0011536782
H -5.8187949264 -1.1069398138 0.0011536782
*