! OPT PBE0 D3BJ def2-TZVP TightSCF VeryTightSCF SlowConv SOSCF 

* xyz 1 1 
C 3.6559681037 -0.8362652507 0.0005188535
C 2.4325585476 -1.4389362883 0.0016360718
C 1.2429972704 -0.6662443865 -0.0000631058
C 0.0008721914 -1.2976397148 0.0011157948
C -1.2396866848 -0.6631714606 -0.0003133734
C -2.4311508141 -1.4329265754 0.0011536782
C -3.6530692728 -0.8272420762 -0.0002226417
C -3.7396835310 0.5772739887 -0.0031332978
C -2.6127472781 1.3617935753 -0.0046370015
C -1.3513595619 0.7555736054 -0.0032491209
S 0.0046904748 1.7885691492 -0.0052312161
C 1.3581724269 0.7522171633 -0.0029634830
C 2.6210564657 1.3553244325 -0.0040730708
C 3.7460558964 0.5680297460 -0.0023478853
H 4.5597366372 -1.4320152157 0.0018252041
H 2.3450459516 -2.5191811475 0.0038416511
H -0.0004944857 -2.3838468100 0.0033421080
H -2.3462916586 -2.5133820532 0.0033950703
H -2.6942809750 2.4423827944 -0.0068759505
C 2.7427097522 2.7500288736 -0.0040730708
C 4.0113858722 3.3420262576 -0.0040730708
C 5.1584087056 2.5393192005 -0.0040730708
C 5.0367554192 1.1446147594 -0.0040730708
H 1.8578635664 3.3692600319 -0.0040730708
H 4.1052326931 4.4179411121 -0.0040730708
H 6.1371017125 2.9960028967 -0.0040730708
H 5.9216016050 0.5253836011 -0.0040730708
C -4.8201199222 -1.6005420062 -0.0002226417
C -6.0733426310 -0.9764964612 -0.0002226417
C -6.1595146904 0.4208490136 -0.0002226417
C -4.9924640410 1.1941489436 -0.0002226417
H -4.7536443335 -2.6784942296 -0.0002226417
H -6.9736388463 -1.5730421215 -0.0002226417
H -7.1262864944 0.9022555769 -0.0002226417
H -5.0589396297 2.2721011671 -0.0002226417
*