! OPT PBE0 D3BJ def2-TZVP TightSCF VeryTightSCF SlowConv SOSCF 

* xyz 0 1 
S 0.0093228419 1.6144825724 -1.1631480854
C -1.3513963510 0.7113058471 -0.5131516574
C -1.3546777468 -0.6829612707 -0.5125742758
S 0.0018081331 -1.5930301128 -1.1618153232
C 1.3623829741 -0.6893124630 -0.5122691142
C 1.3656660535 0.7049539614 -0.5128550697
C 2.4767661136 1.3922571419 -0.0362701155
C 3.5931507088 0.6967831841 0.3978930407
C 3.5898833467 -0.6908438508 0.3984768820
C 2.4702448914 -1.3814269321 -0.0351090333
C -2.4658811596 -1.3698685234 -0.0356553868
C -3.5823605329 -0.6740314100 0.3976844325
C -3.5790977821 0.7135951395 0.3971022697
C -2.4593633395 1.4038170472 -0.0368126724
H 2.4596696962 2.4756716764 -0.0167688793
H 4.4609828475 1.2413430392 0.7500883425
H -2.4487861545 -2.4532678456 -0.0152438121
H -4.4502677130 -1.2182981009 0.7501477929
H -4.4444391918 1.2622246086 0.7491109496
H -2.4371919775 2.4871397815 -0.0173108326
C 4.8221566100 -1.3553004743 0.3984768820
C 4.8628569261 -2.7547087365 0.3984768820
C 3.6712839788 -3.4896603752 0.3984768820
C 2.4390107154 -2.8252037518 0.3984768820
H 5.7413700265 -0.7883377815 0.3984768820
H 5.8134677292 -3.2672895603 0.3984768820
H 3.7026813654 -4.5692038917 0.3984768820
H 1.5197972989 -3.3921664445 0.3984768820
*