! OPT PBE0 D3BJ def2-TZVP TightSCF VeryTightSCF SlowConv SOSCF 

* xyz 0 1 
S 0.0093228419 1.6144825724 -1.1631480854
C -1.3513963510 0.7113058471 -0.5131516574
C -1.3546777468 -0.6829612707 -0.5125742758
S 0.0018081331 -1.5930301128 -1.1618153232
C 1.3623829741 -0.6893124630 -0.5122691142
C 1.3656660535 0.7049539614 -0.5128550697
C 2.4767661136 1.3922571419 -0.0362701155
C 3.5931507088 0.6967831841 0.3978930407
C 3.5898833467 -0.6908438508 0.3984768820
C 2.4702448914 -1.3814269321 -0.0351090333
C -2.4658811596 -1.3698685234 -0.0356553868
C -3.5823605329 -0.6740314100 0.3976844325
C -3.5790977821 0.7135951395 0.3971022697
C -2.4593633395 1.4038170472 -0.0368126724
H 4.4551461462 -1.2391801417 0.7511357299
H 2.4480681958 -2.4647333482 -0.0147051818
H -2.4487861545 -2.4532678456 -0.0152438121
H -4.4502677130 -1.2182981009 0.7501477929
C 2.5237123776 2.7914697949 -0.0362701155
C 3.7589392125 3.4504194641 -0.0362701155
C 4.9472197832 2.7101564803 -0.0362701155
C 4.9002735191 1.3109438273 -0.0362701155
H 1.6070387945 3.3625298110 -0.0362701155
H 3.7951549019 4.5298120821 -0.0362701155
H 5.9001090558 3.2184890823 -0.0362701155
H 5.8169471023 0.7398838112 -0.0362701155
C -4.8111902619 1.3783869273 0.3971022697
C -4.8515099253 2.7778062086 0.3971022697
C -3.6597371089 3.5124337020 0.3971022697
C -2.4276446291 2.8476419141 0.3971022697
H -5.7305578632 0.8116742896 0.3971022697
H -5.8019812669 3.2906455878 0.3971022697
H -3.6908408492 4.5919857189 0.3971022697
H -1.5082770279 3.4143545519 0.3971022697
*