! OPT PBE0 D3BJ def2-TZVP TightSCF 

* xyz 0 1 
S 0.0093228419 1.6144825724 -1.1631480854
C -1.3513963510 0.7113058471 -0.5131516574
C -1.3546777468 -0.6829612707 -0.5125742758
S 0.0018081331 -1.5930301128 -1.1618153232
C 1.3623829741 -0.6893124630 -0.5122691142
C 1.3656660535 0.7049539614 -0.5128550697
C 2.4767661136 1.3922571419 -0.0362701155
C 3.5931507088 0.6967831841 0.3978930407
C 3.5898833467 -0.6908438508 0.3984768820
C 2.4702448914 -1.3814269321 -0.0351090333
C -2.4658811596 -1.3698685234 -0.0356553868
C -3.5823605329 -0.6740314100 0.3976844325
C -3.5790977821 0.7135951395 0.3971022697
C -2.4593633395 1.4038170472 -0.0368126724
H 2.4596696962 2.4756716764 -0.0167688793
H 2.4480681958 -2.4647333482 -0.0147051818
H -4.4444391918 1.2622246086 0.7491109496
H -2.4371919775 2.4871397815 -0.0173108326
C 4.8006673075 -1.3936967517 0.3984768820
C 6.0147477551 -0.6965535336 0.3984768820
C 6.0180442420 0.7034425854 0.3984768820
C 4.8072602812 1.4062954863 0.3984768820
H 4.7981243033 -2.4736937578 0.3984768820
H 6.9487810963 -1.2387543428 0.3984768820
H 6.9546205874 1.2412387823 0.3984768820
H 4.8098032854 2.4862924924 0.3984768820
C -4.8177166335 -1.3327387082 0.3976844325
C -4.8649374299 -2.7319421232 0.3976844325
C -3.6768021257 -3.4724382399 0.3976844325
C -2.4414460251 -2.8137309417 0.3976844325
H -5.7342781539 -0.7614988468 0.3976844325
H -5.8179264218 -3.2400877532 0.3976844325
H -3.7132295973 -4.5518237315 0.3976844325
H -1.5248845048 -3.3849708032 0.3976844325
*