! OPT PBE0 D3BJ def2-TZVP TightSCF 

* xyz 0 1 
S 0.0093228419 1.6144825724 -1.1631480854
C -1.3513963510 0.7113058471 -0.5131516574
C -1.3546777468 -0.6829612707 -0.5125742758
S 0.0018081331 -1.5930301128 -1.1618153232
C 1.3623829741 -0.6893124630 -0.5122691142
C 1.3656660535 0.7049539614 -0.5128550697
C 2.4767661136 1.3922571419 -0.0362701155
C 3.5931507088 0.6967831841 0.3978930407
C 3.5898833467 -0.6908438508 0.3984768820
C 2.4702448914 -1.3814269321 -0.0351090333
C -2.4658811596 -1.3698685234 -0.0356553868
C -3.5823605329 -0.6740314100 0.3976844325
C -3.5790977821 0.7135951395 0.3971022697
C -2.4593633395 1.4038170472 -0.0368126724
H 2.4596696962 2.4756716764 -0.0167688793
H 4.4609828475 1.2413430392 0.7500883425
H -2.4487861545 -2.4532678456 -0.0152438121
H -4.4502677130 -1.2182981009 0.7501477929
H -4.4444391918 1.2622246086 0.7491109496
H -2.4371919775 2.4871397815 -0.0173108326
C 2.5109452075 -2.7808351943 -0.0351090333
C 3.7432184708 -3.4452918177 -0.0351090333
C 4.9347914181 -2.7103401790 -0.0351090333
C 4.8940911021 -1.3109319168 -0.0351090333
H 1.5917317910 -3.3477978870 -0.0351090333
H 3.7746158575 -4.5248353342 -0.0351090333
H 5.8854022213 -3.2229210028 -0.0351090333
H 5.8133045185 -0.7439692240 -0.0351090333
*