! OPT PBE0 D3BJ def2-TZVP TightSCF 

* xyz 0 1 
C -3.5414818724 -0.7154855514 -0.0003781936
C -2.3718154951 -1.4093784654 -0.0000537525
C -1.1313774474 -0.7173626685 -0.0005571497
N 0.0058888153 -1.4087505879 -0.0002368803
C 1.1397370562 -0.7117737632 -0.0007261093
C 2.3835863616 -1.3976408146 -0.0004155364
C 3.5498094991 -0.6979716267 -0.0008981626
C 3.5463130714 0.7224152968 -0.0017211593
C 2.3766439275 1.4163020915 -0.0020463645
C 1.1362097034 0.7242838467 -0.0015572864
N -0.0010551940 1.4156680635 -0.0018826166
C -1.1349010240 0.7186948458 -0.0013984149
C -2.3787460291 1.4045669692 -0.0017176898
C -3.5449700588 0.7049017152 -0.0012228973
H -4.4864969944 -1.2461001675 0.0000104843
H -2.3426623325 -2.4922555707 0.0005878457
H 4.4913244468 1.2530356441 -0.0020945688
H 2.3474872238 2.4991756337 -0.0026752953
C -4.7689784255 1.3844629840 -0.0012228973
C -4.7924652867 2.7842659585 -0.0012228973
C -3.5919437810 3.5045076641 -0.0012228973
C -2.3679354143 2.8249463953 -0.0012228973
H -5.6950950156 0.8288479539 -0.0012228973
H -5.7367003125 3.3084989373 -0.0012228973
H -3.6100622168 4.5843556730 -0.0012228973
H -1.4418188242 3.3805614253 -0.0012228973
C 4.7738197807 -1.3775294465 -0.0008981626
C 4.7973105862 -2.7773323548 -0.0008981626
C 3.5967911101 -3.4975774433 -0.0008981626
C 2.3727808285 -2.8180196235 -0.0008981626
H 5.6999348051 -0.8219118068 -0.0008981626
H 5.7415470892 -3.3015626730 -0.0008981626
H 3.6149125887 -4.5774254011 -0.0008981626
H 1.4466658041 -3.3736372632 -0.0008981626
*